This is new line.
This is New file.
<<<<<<< Updated upstream
New line.
=======
Another line.
>>>>>>> Stashed changes
